# simulation input parameters
#
# forward or adjoint simulation
# 1 = forward, 2 = adjoint, 3 = both simultaneously
SIMULATION_TYPE                 = 1
# 0 = earthquake simulation,  1/2/3 = three steps in noise simulation
NOISE_TOMOGRAPHY                = 0
SAVE_FORWARD                    = .false.

# UTM projection parameters
UTM_PROJECTION_ZONE             = 32
SUPPRESS_UTM_PROJECTION         = .false.

# number of MPI processors
NPROC                           = 2

# time step parameters
NSTEP                           = 800
DT                              = 0.3
USE_LDDRK                       = .false.
INCREASE_CFL_FOR_LDDRK          = .false.
RATIO_BY_WHICH_TO_INCREASE_IT   = 1.4

# number of nodes for 2D and 3D shape functions for hexahedra
# we use either 8-node mesh elements (bricks) or 27-node elements.
# If you use our internal mesher, the only option is 8-node bricks (27-node elements are not supported)
# CUBIT does not support HEX27 elements either (it can generate them, but they are flat, i.e. identical to HEX8).
# To generate HEX27 elements with curvature properly taken into account, you can use Gmsh http://geuz.org/gmsh/
NGNOD 	      	    	     	= 8

# models:
# available options are:
#   default (model parameters described by mesh properties)
# 1D models available are:
#   1d_prem,1d_socal,1d_cascadia
# 3D models available are:
#   aniso,external,gll,salton_trough,tomo
# MODEL                           = 1d_prem
MODEL                           = default
# parameters describing the model
APPROXIMATE_OCEAN_LOAD          = .false.
TOPOGRAPHY                      = .false.
ATTENUATION                     = .false.
ANISOTROPY                      = .false.
GRAVITY                         = .false.

# if you are using a SEP model (oil-industry format)
SEP_MODEL_DIRECTORY             = ./DATA/my_SEP_model/

# path for external tomographic models files
TOMOGRAPHY_PATH                 = ../DATA/tomo_files/

# Olsen's constant for Q_mu = constant * v_s attenuation rule
USE_OLSEN_ATTENUATION           = .false.
OLSEN_ATTENUATION_RATIO         = 0.05

FULL_ATTENUATION_SOLID          = .false.

# absorbing boundary conditions for a regional simulation
STACEY_ABSORBING_CONDITIONS     = .true.

# absorbing top surface (defined in mesh as 'free_surface_file')
STACEY_INSTEAD_OF_FREE_SURFACE  = .false.

# C-PML boundary conditions for a regional simulation
PML_CONDITIONS 	 	    	= .false.

# C-PML top surface
PML_INSTEAD_OF_FREE_SURFACE     = .false.

# C-PML thickness min/max
PML_WIDTH_MIN                   = 10000.0d0
PML_WIDTH_MAX                   = 25000.0d0

# C-PML dominant frequency
f0_FOR_PML                      = 12.7

# parameters used to rotate C-PML boundary conditions by a given angle (not completed yet)				
# ROTATE_PML_ACTIVATE           = .false.
# ROTATE_PML_ANGLE              = 0.

# save AVS or OpenDX movies
# MOVIE_TYPE = 1 to show the top surface
# MOVIE_TYPE = 2 to show all the external faces of the mesh
CREATE_SHAKEMAP                 = .false.
MOVIE_SURFACE                   = .false.
MOVIE_TYPE                      = 1
MOVIE_VOLUME                    = .false.
SAVE_DISPLACEMENT               = .false.
USE_HIGHRES_FOR_MOVIES          = .false.
NTSTEP_BETWEEN_FRAMES           = 5
HDUR_MOVIE                      = 0.0

# save AVS or OpenDX mesh files to check the mesh
SAVE_MESH_FILES                 = .true.

# path to store the local database file on each node
LOCAL_PATH                      = ./OUTPUT_FILES/DATABASES_MPI

# interval at which we output time step info and max of norm of displacement
NTSTEP_BETWEEN_OUTPUT_INFO      = 500

# interval in time steps for writing of seismograms
NTSTEP_BETWEEN_OUTPUT_SEISMOS   = 1000

# interval in time steps for reading adjoint traces
# 0 = read the whole adjoint sources at the same time
NTSTEP_BETWEEN_READ_ADJSRC      = 0

# use a (tilted) FORCESOLUTION force point source (or several) instead of a CMTSOLUTION moment-tensor source.
# This can be useful e.g. for oil industry foothills simulations or asteroid simulations
# in which the source is a vertical force, normal force, inclined force, impact etc.
# If this flag is turned on, the FORCESOLUTION file must be edited by precising:
# - the corresponding time-shift parameter,
# - the half duration parameter of the source,
# - the coordinates of the source,
# - the magnitude of the force source,
# - the components of a (non-unitary) direction vector for the force source in the E/N/Z_UP basis.
# The direction vector is made unitary internally in the code and thus only its direction matters here;
# its norm is ignored and the norm of the force used is the factor force source times the source time function.
USE_FORCE_POINT_SOURCE          = .false.

# decide if we save displacement, velocity, acceleration and/or pressure in forward runs (they can be set to true simultaneously)
# currently pressure seismograms are implemented in acoustic (i.e. fluid) elements only
SAVE_SEISMOGRAMS_DISPLACEMENT   = .true.
SAVE_SEISMOGRAMS_VELOCITY       = .false.
SAVE_SEISMOGRAMS_ACCELERATION   = .false.
SAVE_SEISMOGRAMS_PRESSURE       = .false.  # currently implemented in acoustic (i.e. fluid) elements only

# save seismograms in binary or ASCII format (binary is smaller but may not be portable between machines)
USE_BINARY_FOR_SEISMOGRAMS      = .false.

# output seismograms in Seismic Unix format (binary with 240-byte-headers)
SU_FORMAT                       = .false.

# decide if master process writes all the seismograms or if all processes do it in parallel
WRITE_SEISMOGRAMS_BY_MASTER     = .false.

# save all seismograms in one large combined file instead of one file per seismogram
# to avoid overloading shared non-local file systems such as LUSTRE or GPFS for instance
SAVE_ALL_SEISMOS_IN_ONE_FILE    = .false.

# use a trick to increase accuracy of pressure seismograms in fluid (acoustic) elements:
# use the second derivative of the source for the source time function instead of the source itself,
# and then record -potential_acoustic() as pressure seismograms instead of -potential_dot_dot_acoustic();
# this is mathematically equivalent, but numerically significantly more accurate because in the explicit
# Newmark time scheme acceleration is accurate at zeroth order while displacement is accurate at second order,
# thus in fluid elements potential_dot_dot_acoustic() is accurate at zeroth order while potential_acoustic()
# is accurate at second order and thus contains significantly less numerical noise.
USE_TRICK_FOR_BETTER_PRESSURE   = .false.

#
# source encoding
#
# determines source encoding factor +/-1 depending on sign of moment tensor
# (see e.g. Krebs et al., 2009. Fast full-wavefield seismic inversion using encoded sources, Geophysics, 74 (6), WCC177-WCC188.)
USE_SOURCE_ENCODING             = .false.

#
# total energy calculation
#
# to plot total energy curves, for instance to monitor how CPML absorbing layers behave;
# should be turned OFF in most cases because expensive
OUTPUT_ENERGY                   = .false.
# every how many time steps we compute energy (which is expensive to compute)
NTSTEP_BETWEEN_OUTPUT_ENERGY    = 10

#
# adjoint kernel outputs
#
# this parameter must be set to .true. to compute anisotropic kernels
# in crust and mantle (related to the 21 Cij in geographical coordinates)
# default is .false. to compute isotropic kernels (related to alpha and beta)
ANISOTROPIC_KL                  = .false.

# compute transverse isotropic kernels (alpha_v,alpha_h,beta_v,beta_h,eta,rho)
# rather than fully anisotropic kernels in case ANISOTROPIC_KL is set to .true.
SAVE_TRANSVERSE_KL              = .false.

# outputs approximate Hessian for preconditioning
APPROXIMATE_HESS_KL             = .false.

# save Moho mesh and compute Moho boundary kernels
SAVE_MOHO_MESH                  = .false.

# to couple with an external code (such as DSM, AxiSEM, or FK)
COUPLE_WITH_EXTERNAL_CODE       = .false.
EXTERNAL_CODE_TYPE              = 1   # 1 = DSM, 2 = AxiSEM, 3 = FK
TRACTION_PATH                   = ./DATA/DSM_tractions_for_specfem3D/
MESH_A_CHUNK_OF_THE_EARTH       = .true.

NUMBER_OF_SIMULTANEOUS_RUNS     = 1

BROADCAST_SAME_MESH_AND_MODEL   = .false.

# if one or a few of these simultaneous runs fail, kill all the runs or let the others finish using a fail-safe mechanism
# (in most cases, should be set to false)
USE_FAILSAFE_MECHANISM          = .false.

# set to true to use GPUs
GPU_MODE                        = .false.

# ADIOS Options for I/Os
ADIOS_ENABLED                   = .false.
ADIOS_FOR_DATABASES             = .false.
ADIOS_FOR_MESH                  = .false.
ADIOS_FOR_FORWARD_ARRAYS        = .false.
ADIOS_FOR_KERNELS               = .false.



# set to true to use a Ricker source time function instead of the source time functions set by default 
# to represent a (tilted) FORCESOLUTION force point source or a CMTSOLUTION moment-tensor source.
USE_RICKER_TIME_FUNCTION        = .false.

# print source time function
PRINT_SOURCE_TIME_FUNCTION      = .true.

# set to true to use GPUs
GPU_MODE                        = .false.

